* NGSPICE file created from vco_with_fdivs_lasttry.ext - technology: sky130A

.subckt sky130_fd_pr__nfet_01v8_NDE37H a_15_n115# a_n118_22# a_n73_n115# VSUBS
X0 a_15_n115# a_n118_22# a_n73_n115# VSUBS sky130_fd_pr__nfet_01v8 ad=2.436e+11p pd=2.26e+06u as=2.436e+11p ps=2.26e+06u w=840000u l=150000u
C0 a_15_n115# a_n73_n115# 0.11fF
C1 a_15_n115# VSUBS 0.02fF
C2 a_n73_n115# VSUBS 0.02fF
C3 a_n118_22# VSUBS 0.15fF
.ends

.subckt sky130_fd_pr__pfet_01v8_A7DS5R a_15_n36# a_n73_n36# w_n109_n86# a_n15_n133#
+ VSUBS
X0 a_15_n36# a_n15_n133# a_n73_n36# w_n109_n86# sky130_fd_pr__pfet_01v8 ad=2.088e+11p pd=2.02e+06u as=2.088e+11p ps=2.02e+06u w=720000u l=150000u
C0 a_n73_n36# a_15_n36# 0.09fF
C1 w_n109_n86# a_n15_n133# 0.05fF
C2 a_15_n36# w_n109_n86# 0.08fF
C3 a_n73_n36# w_n109_n86# 0.08fF
C4 a_15_n36# VSUBS -0.06fF
C5 a_n73_n36# VSUBS -0.06fF
C6 a_n15_n133# VSUBS 0.04fF
C7 w_n109_n86# VSUBS 0.17fF
.ends

.subckt sky130_fd_pr__nfet_01v8_PW5BNL a_15_n79# a_n73_37# a_n73_n79# VSUBS
X0 a_15_n79# a_n73_37# a_n73_n79# VSUBS sky130_fd_pr__nfet_01v8 ad=1.218e+11p pd=1.42e+06u as=1.218e+11p ps=1.42e+06u w=420000u l=150000u
C0 a_n73_37# a_n73_n79# 0.03fF
C1 a_15_n79# a_n73_n79# 0.07fF
C2 a_15_n79# VSUBS 0.03fF
C3 a_n73_n79# VSUBS 0.03fF
C4 a_n73_37# VSUBS 0.15fF
.ends

.subckt sky130_fd_pr__pfet_01v8_ACPHKB a_n33_37# a_15_n78# a_n73_n78# w_n109_n140#
+ VSUBS
X0 a_15_n78# a_n33_37# a_n73_n78# w_n109_n140# sky130_fd_pr__pfet_01v8 ad=1.218e+11p pd=1.42e+06u as=1.218e+11p ps=1.42e+06u w=420000u l=150000u
C0 a_n73_n78# a_15_n78# 0.06fF
C1 w_n109_n140# a_n33_37# 0.14fF
C2 a_15_n78# a_n33_37# 0.00fF
C3 a_15_n78# w_n109_n140# 0.05fF
C4 a_n73_n78# a_n33_37# 0.00fF
C5 a_n73_n78# w_n109_n140# 0.05fF
C6 a_15_n78# VSUBS -0.03fF
C7 a_n73_n78# VSUBS -0.03fF
C8 a_n33_37# VSUBS -0.01fF
C9 w_n109_n140# VSUBS 0.16fF
.ends

.subckt FD_v2 VDD GND Clk_Out 7 5 4 3 Clkb 6 Clk_In 2
Xsky130_fd_pr__nfet_01v8_NDE37H_0 4 Clk_In 3 GND sky130_fd_pr__nfet_01v8_NDE37H
Xsky130_fd_pr__nfet_01v8_NDE37H_1 6 Clkb 5 GND sky130_fd_pr__nfet_01v8_NDE37H
Xsky130_fd_pr__pfet_01v8_A7DS5R_0 Clkb VDD VDD Clk_In GND sky130_fd_pr__pfet_01v8_A7DS5R
Xsky130_fd_pr__pfet_01v8_A7DS5R_1 3 VDD VDD 2 GND sky130_fd_pr__pfet_01v8_A7DS5R
Xsky130_fd_pr__pfet_01v8_A7DS5R_2 5 VDD VDD 4 GND sky130_fd_pr__pfet_01v8_A7DS5R
Xsky130_fd_pr__pfet_01v8_A7DS5R_3 2 VDD VDD 6 GND sky130_fd_pr__pfet_01v8_A7DS5R
Xsky130_fd_pr__pfet_01v8_A7DS5R_5 Clk_Out VDD VDD 7 GND sky130_fd_pr__pfet_01v8_A7DS5R
Xsky130_fd_pr__pfet_01v8_A7DS5R_4 VDD 7 VDD 6 GND sky130_fd_pr__pfet_01v8_A7DS5R
Xsky130_fd_pr__nfet_01v8_PW5BNL_1 3 2 GND GND sky130_fd_pr__nfet_01v8_PW5BNL
Xsky130_fd_pr__nfet_01v8_PW5BNL_0 Clkb Clk_In GND GND sky130_fd_pr__nfet_01v8_PW5BNL
Xsky130_fd_pr__nfet_01v8_PW5BNL_2 5 4 GND GND sky130_fd_pr__nfet_01v8_PW5BNL
Xsky130_fd_pr__nfet_01v8_PW5BNL_3 2 6 GND GND sky130_fd_pr__nfet_01v8_PW5BNL
Xsky130_fd_pr__nfet_01v8_PW5BNL_4 GND 6 7 GND sky130_fd_pr__nfet_01v8_PW5BNL
Xsky130_fd_pr__pfet_01v8_ACPHKB_1 Clk_In 6 5 VDD GND sky130_fd_pr__pfet_01v8_ACPHKB
Xsky130_fd_pr__pfet_01v8_ACPHKB_0 Clkb 4 3 VDD GND sky130_fd_pr__pfet_01v8_ACPHKB
Xsky130_fd_pr__nfet_01v8_PW5BNL_5 Clk_Out 7 GND GND sky130_fd_pr__nfet_01v8_PW5BNL
C0 4 GND 0.41fF
C1 4 3 0.13fF
C2 5 6 0.19fF
C3 2 VDD 0.28fF
C4 7 6 0.42fF
C5 Clk_Out 6 0.02fF
C6 VDD Clkb 1.06fF
C7 Clk_In GND 0.43fF
C8 7 Clk_Out 0.14fF
C9 Clk_In 3 0.18fF
C10 VDD 6 0.12fF
C11 4 2 0.19fF
C12 VDD 5 0.12fF
C13 7 VDD 0.26fF
C14 GND 3 0.23fF
C15 VDD Clk_Out 0.08fF
C16 4 Clkb 0.12fF
C17 4 6 0.00fF
C18 Clk_In 2 0.85fF
C19 4 5 0.08fF
C20 Clk_In Clkb 0.93fF
C21 2 GND 0.21fF
C22 2 3 0.12fF
C23 Clk_In 6 0.00fF
C24 Clk_In 5 0.11fF
C25 4 VDD 0.10fF
C26 GND Clkb 0.09fF
C27 7 Clk_In 0.00fF
C28 Clkb 3 0.28fF
C29 6 GND 0.78fF
C30 5 GND 0.19fF
C31 5 3 0.03fF
C32 7 GND 0.11fF
C33 Clk_In VDD 1.11fF
C34 Clk_Out GND 0.09fF
C35 2 Clkb 0.60fF
C36 VDD GND 0.03fF
C37 VDD 3 0.15fF
C38 2 6 0.61fF
C39 2 5 0.17fF
C40 4 Clk_In 0.08fF
C41 7 2 0.11fF
C42 2 Clk_Out 0.04fF
C43 6 Clkb 0.02fF
C44 5 Clkb 0.09fF
C45 Clkb 0 0.93fF
C46 7 0 0.47fF
C47 Clk_Out 0 0.12fF
C48 5 0 0.12fF
C49 GND 0 -0.19fF
C50 Clk_In 0 1.07fF
C51 3 0 0.02fF
C52 2 0 0.92fF
C53 VDD 0 1.90fF
C54 6 0 0.82fF
C55 4 0 0.09fF
.ends

.subckt sky130_fd_pr__nfet_01v8_PW6BNL a_103_n163# a_191_n163# a_n73_n163# a_n73_37#
+ a_15_n163# VSUBS
X0 a_103_n163# a_n73_37# a_15_n163# VSUBS sky130_fd_pr__nfet_01v8 ad=2.436e+11p pd=2.26e+06u as=2.436e+11p ps=2.26e+06u w=840000u l=150000u
X1 a_15_n163# a_n73_37# a_n73_n163# VSUBS sky130_fd_pr__nfet_01v8 ad=0p pd=0u as=2.436e+11p ps=2.26e+06u w=840000u l=150000u
X2 a_191_n163# a_n73_37# a_103_n163# VSUBS sky130_fd_pr__nfet_01v8 ad=2.436e+11p pd=2.26e+06u as=0p ps=0u w=840000u l=150000u
C0 a_n73_n163# a_n73_37# 0.03fF
C1 a_n73_n163# a_15_n163# 0.12fF
C2 a_n73_n163# a_103_n163# 0.05fF
C3 a_103_n163# a_15_n163# 0.12fF
C4 a_n73_n163# a_191_n163# 0.03fF
C5 a_191_n163# a_15_n163# 0.05fF
C6 a_191_n163# a_103_n163# 0.12fF
C7 a_191_n163# VSUBS 0.03fF
C8 a_103_n163# VSUBS 0.03fF
C9 a_15_n163# VSUBS 0.03fF
C10 a_n73_n163# VSUBS 0.03fF
C11 a_n73_37# VSUBS 0.36fF
.ends

.subckt sky130_fd_pr__pfet_01v8_A4DS5R a_279_n36# a_15_n36# a_103_n36# a_367_n36#
+ a_455_n36# a_n73_n36# a_543_n36# a_191_n36# w_n109_n86# a_n15_n133# VSUBS
X0 a_543_n36# a_n15_n133# a_455_n36# w_n109_n86# sky130_fd_pr__pfet_01v8 ad=4.176e+11p pd=3.46e+06u as=4.176e+11p ps=3.46e+06u w=1.44e+06u l=150000u
X1 a_279_n36# a_n15_n133# a_191_n36# w_n109_n86# sky130_fd_pr__pfet_01v8 ad=4.176e+11p pd=3.46e+06u as=4.176e+11p ps=3.46e+06u w=1.44e+06u l=150000u
X2 a_103_n36# a_n15_n133# a_15_n36# w_n109_n86# sky130_fd_pr__pfet_01v8 ad=4.176e+11p pd=3.46e+06u as=4.176e+11p ps=3.46e+06u w=1.44e+06u l=150000u
X3 a_455_n36# a_n15_n133# a_367_n36# w_n109_n86# sky130_fd_pr__pfet_01v8 ad=0p pd=0u as=4.176e+11p ps=3.46e+06u w=1.44e+06u l=150000u
X4 a_15_n36# a_n15_n133# a_n73_n36# w_n109_n86# sky130_fd_pr__pfet_01v8 ad=0p pd=0u as=4.176e+11p ps=3.46e+06u w=1.44e+06u l=150000u
X5 a_191_n36# a_n15_n133# a_103_n36# w_n109_n86# sky130_fd_pr__pfet_01v8 ad=0p pd=0u as=0p ps=0u w=1.44e+06u l=150000u
X6 a_367_n36# a_n15_n133# a_279_n36# w_n109_n86# sky130_fd_pr__pfet_01v8 ad=0p pd=0u as=0p ps=0u w=1.44e+06u l=150000u
C0 a_n15_n133# w_n109_n86# 0.35fF
C1 a_279_n36# a_n73_n36# 0.03fF
C2 a_n73_n36# w_n109_n86# 0.14fF
C3 a_191_n36# a_n73_n36# 0.04fF
C4 a_279_n36# a_15_n36# 0.04fF
C5 a_15_n36# w_n109_n86# 0.14fF
C6 a_191_n36# a_15_n36# 0.07fF
C7 a_279_n36# a_103_n36# 0.07fF
C8 a_15_n36# a_367_n36# 0.03fF
C9 a_103_n36# w_n109_n86# 0.14fF
C10 a_191_n36# a_103_n36# 0.18fF
C11 a_455_n36# a_279_n36# 0.07fF
C12 a_455_n36# a_543_n36# 0.18fF
C13 a_103_n36# a_367_n36# 0.04fF
C14 a_455_n36# w_n109_n86# 0.14fF
C15 a_191_n36# a_455_n36# 0.04fF
C16 a_15_n36# a_n73_n36# 0.18fF
C17 a_455_n36# a_367_n36# 0.18fF
C18 a_103_n36# a_n73_n36# 0.07fF
C19 a_103_n36# a_15_n36# 0.18fF
C20 a_455_n36# a_103_n36# 0.03fF
C21 a_279_n36# a_543_n36# 0.04fF
C22 a_279_n36# w_n109_n86# 0.14fF
C23 a_543_n36# w_n109_n86# 0.14fF
C24 a_191_n36# a_279_n36# 0.18fF
C25 a_191_n36# a_543_n36# 0.03fF
C26 a_191_n36# w_n109_n86# 0.14fF
C27 a_279_n36# a_367_n36# 0.18fF
C28 a_543_n36# a_367_n36# 0.07fF
C29 a_367_n36# w_n109_n86# 0.14fF
C30 a_191_n36# a_367_n36# 0.07fF
C31 a_543_n36# VSUBS -0.12fF
C32 a_455_n36# VSUBS -0.12fF
C33 a_367_n36# VSUBS -0.12fF
C34 a_279_n36# VSUBS -0.12fF
C35 a_191_n36# VSUBS -0.12fF
C36 a_103_n36# VSUBS -0.12fF
C37 a_15_n36# VSUBS -0.12fF
C38 a_n73_n36# VSUBS -0.12fF
C39 a_n15_n133# VSUBS 0.43fF
C40 w_n109_n86# VSUBS 0.90fF
.ends

.subckt sky130_fd_pr__nfet_01v8_PW7BNL a_n73_n163# a_n73_37# a_15_n163# VSUBS
X0 a_15_n163# a_n73_37# a_n73_n163# VSUBS sky130_fd_pr__nfet_01v8 ad=2.436e+11p pd=2.26e+06u as=2.436e+11p ps=2.26e+06u w=840000u l=150000u
C0 a_15_n163# a_n73_n163# 0.12fF
C1 a_n73_37# a_n73_n163# 0.03fF
C2 a_15_n163# VSUBS 0.03fF
C3 a_n73_n163# VSUBS 0.03fF
C4 a_n73_37# VSUBS 0.15fF
.ends

.subckt sky130_fd_pr__nfet_01v8_PW8BNL a_103_n163# a_n73_n163# a_n73_37# a_15_n163#
+ VSUBS
X0 a_103_n163# a_n73_37# a_15_n163# VSUBS sky130_fd_pr__nfet_01v8 ad=2.436e+11p pd=2.26e+06u as=2.436e+11p ps=2.26e+06u w=840000u l=150000u
X1 a_15_n163# a_n73_37# a_n73_n163# VSUBS sky130_fd_pr__nfet_01v8 ad=0p pd=0u as=2.436e+11p ps=2.26e+06u w=840000u l=150000u
C0 a_15_n163# a_103_n163# 0.12fF
C1 a_15_n163# a_n73_n163# 0.12fF
C2 a_n73_37# a_n73_n163# 0.03fF
C3 a_103_n163# a_n73_n163# 0.05fF
C4 a_103_n163# VSUBS 0.03fF
C5 a_15_n163# VSUBS 0.03fF
C6 a_n73_n163# VSUBS 0.03fF
C7 a_n73_37# VSUBS 0.26fF
.ends

.subckt sky130_fd_pr__pfet_01v8_A8DS5R a_279_n36# a_15_n36# a_103_n36# a_n73_n36#
+ a_191_n36# w_n109_n86# a_n15_n133# VSUBS
X0 a_279_n36# a_n15_n133# a_191_n36# w_n109_n86# sky130_fd_pr__pfet_01v8 ad=4.176e+11p pd=3.46e+06u as=4.176e+11p ps=3.46e+06u w=1.44e+06u l=150000u
X1 a_103_n36# a_n15_n133# a_15_n36# w_n109_n86# sky130_fd_pr__pfet_01v8 ad=4.176e+11p pd=3.46e+06u as=4.176e+11p ps=3.46e+06u w=1.44e+06u l=150000u
X2 a_15_n36# a_n15_n133# a_n73_n36# w_n109_n86# sky130_fd_pr__pfet_01v8 ad=0p pd=0u as=4.176e+11p ps=3.46e+06u w=1.44e+06u l=150000u
X3 a_191_n36# a_n15_n133# a_103_n36# w_n109_n86# sky130_fd_pr__pfet_01v8 ad=0p pd=0u as=0p ps=0u w=1.44e+06u l=150000u
C0 a_279_n36# a_103_n36# 0.07fF
C1 a_191_n36# a_279_n36# 0.18fF
C2 a_n73_n36# a_103_n36# 0.07fF
C3 a_191_n36# a_n73_n36# 0.04fF
C4 a_279_n36# w_n109_n86# 0.14fF
C5 a_279_n36# a_15_n36# 0.04fF
C6 a_n73_n36# w_n109_n86# 0.14fF
C7 a_n73_n36# a_15_n36# 0.18fF
C8 a_191_n36# a_103_n36# 0.18fF
C9 w_n109_n86# a_103_n36# 0.14fF
C10 a_15_n36# a_103_n36# 0.18fF
C11 a_191_n36# w_n109_n86# 0.14fF
C12 a_191_n36# a_15_n36# 0.07fF
C13 w_n109_n86# a_15_n36# 0.14fF
C14 a_279_n36# a_n73_n36# 0.03fF
C15 w_n109_n86# a_n15_n133# 0.20fF
C16 a_279_n36# VSUBS -0.12fF
C17 a_191_n36# VSUBS -0.12fF
C18 a_103_n36# VSUBS -0.12fF
C19 a_15_n36# VSUBS -0.12fF
C20 a_n73_n36# VSUBS -0.12fF
C21 a_n15_n133# VSUBS 0.24fF
C22 w_n109_n86# VSUBS 0.58fF
.ends

.subckt sky130_fd_pr__pfet_01v8_A2DS5R a_279_n36# a_15_n36# a_103_n36# a_367_n36#
+ a_n15_n81# a_n73_n36# a_191_n36# w_n109_n86# VSUBS
X0 a_279_n36# a_n15_n81# a_191_n36# w_n109_n86# sky130_fd_pr__pfet_01v8 ad=4.176e+11p pd=3.46e+06u as=4.176e+11p ps=3.46e+06u w=1.44e+06u l=150000u
X1 a_103_n36# a_n15_n81# a_15_n36# w_n109_n86# sky130_fd_pr__pfet_01v8 ad=4.176e+11p pd=3.46e+06u as=4.176e+11p ps=3.46e+06u w=1.44e+06u l=150000u
X2 a_15_n36# a_n15_n81# a_n73_n36# w_n109_n86# sky130_fd_pr__pfet_01v8 ad=0p pd=0u as=4.176e+11p ps=3.46e+06u w=1.44e+06u l=150000u
X3 a_191_n36# a_n15_n81# a_103_n36# w_n109_n86# sky130_fd_pr__pfet_01v8 ad=0p pd=0u as=0p ps=0u w=1.44e+06u l=150000u
X4 a_367_n36# a_n15_n81# a_279_n36# w_n109_n86# sky130_fd_pr__pfet_01v8 ad=4.176e+11p pd=3.46e+06u as=0p ps=0u w=1.44e+06u l=150000u
C0 a_191_n36# a_367_n36# 0.07fF
C1 a_191_n36# a_15_n36# 0.07fF
C2 a_103_n36# a_191_n36# 0.18fF
C3 a_191_n36# a_279_n36# 0.18fF
C4 a_191_n36# a_n73_n36# 0.04fF
C5 a_191_n36# w_n109_n86# 0.14fF
C6 a_367_n36# a_15_n36# 0.03fF
C7 a_103_n36# a_367_n36# 0.04fF
C8 a_n15_n81# w_n109_n86# 0.34fF
C9 a_367_n36# a_279_n36# 0.18fF
C10 a_103_n36# a_15_n36# 0.18fF
C11 a_279_n36# a_15_n36# 0.04fF
C12 a_103_n36# a_279_n36# 0.07fF
C13 a_n73_n36# a_15_n36# 0.18fF
C14 a_103_n36# a_n73_n36# 0.07fF
C15 a_367_n36# w_n109_n86# 0.14fF
C16 a_n73_n36# a_279_n36# 0.03fF
C17 w_n109_n86# a_15_n36# 0.14fF
C18 a_103_n36# w_n109_n86# 0.14fF
C19 w_n109_n86# a_279_n36# 0.14fF
C20 a_n73_n36# w_n109_n86# 0.14fF
C21 a_367_n36# VSUBS -0.12fF
C22 a_279_n36# VSUBS -0.12fF
C23 a_191_n36# VSUBS -0.12fF
C24 a_103_n36# VSUBS -0.12fF
C25 a_15_n36# VSUBS -0.12fF
C26 a_n73_n36# VSUBS -0.12fF
C27 a_n15_n81# VSUBS 0.05fF
C28 w_n109_n86# VSUBS 0.68fF
.ends

.subckt sky130_fd_pr__pfet_01v8_A1DS5R a_15_n36# a_103_n36# a_n73_n36# w_n109_n86#
+ a_n15_n133# VSUBS
X0 a_103_n36# a_n15_n133# a_15_n36# w_n109_n86# sky130_fd_pr__pfet_01v8 ad=4.176e+11p pd=3.46e+06u as=4.176e+11p ps=3.46e+06u w=1.44e+06u l=150000u
X1 a_15_n36# a_n15_n133# a_n73_n36# w_n109_n86# sky130_fd_pr__pfet_01v8 ad=0p pd=0u as=4.176e+11p ps=3.46e+06u w=1.44e+06u l=150000u
C0 a_n73_n36# a_15_n36# 0.18fF
C1 a_15_n36# a_103_n36# 0.18fF
C2 a_15_n36# w_n109_n86# 0.14fF
C3 a_n73_n36# a_103_n36# 0.07fF
C4 w_n109_n86# a_n15_n133# 0.10fF
C5 a_n73_n36# w_n109_n86# 0.14fF
C6 w_n109_n86# a_103_n36# 0.14fF
C7 a_103_n36# VSUBS -0.12fF
C8 a_15_n36# VSUBS -0.12fF
C9 a_n73_n36# VSUBS -0.12fF
C10 a_n15_n133# VSUBS 0.11fF
C11 w_n109_n86# VSUBS 0.37fF
.ends

.subckt sky130_fd_pr__pfet_01v8_B2DS5R a_279_n36# a_15_n36# a_103_n36# a_367_n36#
+ a_455_n36# a_n15_n81# a_n73_n36# a_543_n36# a_191_n36# w_n109_n86# VSUBS
X0 a_543_n36# a_n15_n81# a_455_n36# w_n109_n86# sky130_fd_pr__pfet_01v8 ad=4.176e+11p pd=3.46e+06u as=4.176e+11p ps=3.46e+06u w=1.44e+06u l=150000u
X1 a_279_n36# a_n15_n81# a_191_n36# w_n109_n86# sky130_fd_pr__pfet_01v8 ad=4.176e+11p pd=3.46e+06u as=4.176e+11p ps=3.46e+06u w=1.44e+06u l=150000u
X2 a_103_n36# a_n15_n81# a_15_n36# w_n109_n86# sky130_fd_pr__pfet_01v8 ad=4.176e+11p pd=3.46e+06u as=4.176e+11p ps=3.46e+06u w=1.44e+06u l=150000u
X3 a_455_n36# a_n15_n81# a_367_n36# w_n109_n86# sky130_fd_pr__pfet_01v8 ad=0p pd=0u as=4.176e+11p ps=3.46e+06u w=1.44e+06u l=150000u
X4 a_15_n36# a_n15_n81# a_n73_n36# w_n109_n86# sky130_fd_pr__pfet_01v8 ad=0p pd=0u as=4.176e+11p ps=3.46e+06u w=1.44e+06u l=150000u
X5 a_191_n36# a_n15_n81# a_103_n36# w_n109_n86# sky130_fd_pr__pfet_01v8 ad=0p pd=0u as=0p ps=0u w=1.44e+06u l=150000u
X6 a_367_n36# a_n15_n81# a_279_n36# w_n109_n86# sky130_fd_pr__pfet_01v8 ad=0p pd=0u as=0p ps=0u w=1.44e+06u l=150000u
C0 a_455_n36# a_367_n36# 0.18fF
C1 a_455_n36# w_n109_n86# 0.14fF
C2 a_543_n36# a_279_n36# 0.04fF
C3 a_455_n36# a_279_n36# 0.07fF
C4 a_15_n36# a_191_n36# 0.07fF
C5 a_455_n36# a_543_n36# 0.18fF
C6 a_n73_n36# a_15_n36# 0.18fF
C7 a_15_n36# a_103_n36# 0.18fF
C8 a_15_n36# a_367_n36# 0.03fF
C9 a_15_n36# w_n109_n86# 0.14fF
C10 a_15_n36# a_279_n36# 0.04fF
C11 a_n73_n36# a_191_n36# 0.04fF
C12 a_191_n36# a_103_n36# 0.18fF
C13 a_n73_n36# a_103_n36# 0.07fF
C14 a_367_n36# a_191_n36# 0.07fF
C15 a_191_n36# w_n109_n86# 0.14fF
C16 w_n109_n86# a_n15_n81# 0.48fF
C17 a_n73_n36# w_n109_n86# 0.14fF
C18 a_367_n36# a_103_n36# 0.04fF
C19 a_191_n36# a_279_n36# 0.18fF
C20 w_n109_n86# a_103_n36# 0.14fF
C21 a_191_n36# a_543_n36# 0.03fF
C22 a_455_n36# a_191_n36# 0.04fF
C23 a_n73_n36# a_279_n36# 0.03fF
C24 a_279_n36# a_103_n36# 0.07fF
C25 a_367_n36# w_n109_n86# 0.14fF
C26 a_455_n36# a_103_n36# 0.03fF
C27 a_367_n36# a_279_n36# 0.18fF
C28 w_n109_n86# a_279_n36# 0.14fF
C29 a_367_n36# a_543_n36# 0.07fF
C30 w_n109_n86# a_543_n36# 0.14fF
C31 a_543_n36# VSUBS -0.12fF
C32 a_455_n36# VSUBS -0.12fF
C33 a_367_n36# VSUBS -0.12fF
C34 a_279_n36# VSUBS -0.12fF
C35 a_191_n36# VSUBS -0.12fF
C36 a_103_n36# VSUBS -0.12fF
C37 a_15_n36# VSUBS -0.12fF
C38 a_n73_n36# VSUBS -0.12fF
C39 a_n15_n81# VSUBS 0.07fF
C40 w_n109_n86# VSUBS 0.90fF
.ends

.subckt sky130_fd_pr__nfet_01v8_PW9BNL a_103_n163# a_279_n163# a_n15_n199# a_543_n163#
+ a_191_n163# a_n73_n163# a_367_n163# a_631_n163# a_15_n163# a_455_n163# VSUBS
X0 a_543_n163# a_n15_n199# a_455_n163# VSUBS sky130_fd_pr__nfet_01v8 ad=2.436e+11p pd=2.26e+06u as=2.436e+11p ps=2.26e+06u w=840000u l=150000u
X1 a_103_n163# a_n15_n199# a_15_n163# VSUBS sky130_fd_pr__nfet_01v8 ad=2.436e+11p pd=2.26e+06u as=2.436e+11p ps=2.26e+06u w=840000u l=150000u
X2 a_279_n163# a_n15_n199# a_191_n163# VSUBS sky130_fd_pr__nfet_01v8 ad=2.436e+11p pd=2.26e+06u as=2.436e+11p ps=2.26e+06u w=840000u l=150000u
X3 a_455_n163# a_n15_n199# a_367_n163# VSUBS sky130_fd_pr__nfet_01v8 ad=0p pd=0u as=2.436e+11p ps=2.26e+06u w=840000u l=150000u
X4 a_631_n163# a_n15_n199# a_543_n163# VSUBS sky130_fd_pr__nfet_01v8 ad=2.436e+11p pd=2.26e+06u as=0p ps=0u w=840000u l=150000u
X5 a_15_n163# a_n15_n199# a_n73_n163# VSUBS sky130_fd_pr__nfet_01v8 ad=0p pd=0u as=2.436e+11p ps=2.26e+06u w=840000u l=150000u
X6 a_367_n163# a_n15_n199# a_279_n163# VSUBS sky130_fd_pr__nfet_01v8 ad=0p pd=0u as=0p ps=0u w=840000u l=150000u
X7 a_191_n163# a_n15_n199# a_103_n163# VSUBS sky130_fd_pr__nfet_01v8 ad=0p pd=0u as=0p ps=0u w=840000u l=150000u
C0 a_191_n163# a_103_n163# 0.12fF
C1 a_191_n163# a_543_n163# 0.02fF
C2 a_279_n163# a_15_n163# 0.03fF
C3 a_191_n163# a_15_n163# 0.05fF
C4 a_191_n163# a_279_n163# 0.12fF
C5 a_455_n163# a_631_n163# 0.05fF
C6 a_367_n163# a_455_n163# 0.12fF
C7 a_455_n163# a_103_n163# 0.02fF
C8 a_455_n163# a_543_n163# 0.12fF
C9 a_455_n163# a_279_n163# 0.05fF
C10 a_367_n163# a_631_n163# 0.03fF
C11 a_191_n163# a_455_n163# 0.03fF
C12 a_103_n163# a_n73_n163# 0.05fF
C13 a_543_n163# a_631_n163# 0.12fF
C14 a_367_n163# a_103_n163# 0.03fF
C15 a_367_n163# a_543_n163# 0.05fF
C16 a_n73_n163# a_15_n163# 0.12fF
C17 a_n73_n163# a_279_n163# 0.02fF
C18 a_191_n163# a_n73_n163# 0.03fF
C19 a_367_n163# a_15_n163# 0.02fF
C20 a_279_n163# a_631_n163# 0.02fF
C21 a_367_n163# a_279_n163# 0.12fF
C22 a_367_n163# a_191_n163# 0.05fF
C23 a_103_n163# a_15_n163# 0.12fF
C24 a_103_n163# a_279_n163# 0.05fF
C25 a_543_n163# a_279_n163# 0.03fF
C26 a_631_n163# VSUBS 0.03fF
C27 a_543_n163# VSUBS 0.03fF
C28 a_455_n163# VSUBS 0.03fF
C29 a_367_n163# VSUBS 0.03fF
C30 a_279_n163# VSUBS 0.03fF
C31 a_191_n163# VSUBS 0.03fF
C32 a_103_n163# VSUBS 0.03fF
C33 a_15_n163# VSUBS 0.03fF
C34 a_n73_n163# VSUBS 0.03fF
C35 a_n15_n199# VSUBS 0.68fF
.ends

.subckt sky130_fd_pr__pfet_01v8_A9DS5R a_15_n36# a_n73_n36# w_n109_n86# a_n15_n133#
+ VSUBS
X0 a_15_n36# a_n15_n133# a_n73_n36# w_n109_n86# sky130_fd_pr__pfet_01v8 ad=4.176e+11p pd=3.46e+06u as=4.176e+11p ps=3.46e+06u w=1.44e+06u l=150000u
C0 w_n109_n86# a_n15_n133# 0.05fF
C1 a_n73_n36# a_15_n36# 0.18fF
C2 w_n109_n86# a_15_n36# 0.14fF
C3 a_n73_n36# w_n109_n86# 0.14fF
C4 a_15_n36# VSUBS -0.12fF
C5 a_n73_n36# VSUBS -0.12fF
C6 a_n15_n133# VSUBS 0.04fF
C7 w_n109_n86# VSUBS 0.26fF
.ends

.subckt sky130_fd_pr__nfet_01v8_PW4BNL a_103_n163# a_279_n163# a_191_n163# a_n73_n163#
+ a_n73_37# a_367_n163# a_15_n163# VSUBS
X0 a_103_n163# a_n73_37# a_15_n163# VSUBS sky130_fd_pr__nfet_01v8 ad=2.436e+11p pd=2.26e+06u as=2.436e+11p ps=2.26e+06u w=840000u l=150000u
X1 a_279_n163# a_n73_37# a_191_n163# VSUBS sky130_fd_pr__nfet_01v8 ad=2.436e+11p pd=2.26e+06u as=2.436e+11p ps=2.26e+06u w=840000u l=150000u
X2 a_15_n163# a_n73_37# a_n73_n163# VSUBS sky130_fd_pr__nfet_01v8 ad=0p pd=0u as=2.436e+11p ps=2.26e+06u w=840000u l=150000u
X3 a_367_n163# a_n73_37# a_279_n163# VSUBS sky130_fd_pr__nfet_01v8 ad=2.436e+11p pd=2.26e+06u as=0p ps=0u w=840000u l=150000u
X4 a_191_n163# a_n73_37# a_103_n163# VSUBS sky130_fd_pr__nfet_01v8 ad=0p pd=0u as=0p ps=0u w=840000u l=150000u
C0 a_n73_37# a_n73_n163# 0.03fF
C1 a_103_n163# a_279_n163# 0.05fF
C2 a_15_n163# a_103_n163# 0.12fF
C3 a_103_n163# a_191_n163# 0.12fF
C4 a_103_n163# a_367_n163# 0.03fF
C5 a_103_n163# a_n73_n163# 0.05fF
C6 a_15_n163# a_279_n163# 0.03fF
C7 a_191_n163# a_279_n163# 0.12fF
C8 a_15_n163# a_191_n163# 0.05fF
C9 a_367_n163# a_279_n163# 0.12fF
C10 a_15_n163# a_367_n163# 0.02fF
C11 a_n73_n163# a_279_n163# 0.02fF
C12 a_15_n163# a_n73_n163# 0.12fF
C13 a_191_n163# a_367_n163# 0.05fF
C14 a_191_n163# a_n73_n163# 0.03fF
C15 a_367_n163# VSUBS 0.03fF
C16 a_279_n163# VSUBS 0.03fF
C17 a_191_n163# VSUBS 0.03fF
C18 a_103_n163# VSUBS 0.03fF
C19 a_15_n163# VSUBS 0.03fF
C20 a_n73_n163# VSUBS 0.03fF
C21 a_n73_37# VSUBS 0.58fF
.ends

.subckt FD_v5_lasttry Clk_In VDD GND Clk_Out Clkb_buf dus 7 4 3 5 2 Clkb_int Clk_In_buf
+ 6
XMNinv2 GND 5 GND 4 5 GND sky130_fd_pr__nfet_01v8_PW6BNL
XMNinv1 GND 3 GND 2 3 GND sky130_fd_pr__nfet_01v8_PW6BNL
XMNClkin GND Clk_In_buf GND Clkb_buf Clk_In_buf GND sky130_fd_pr__nfet_01v8_PW6BNL
Xsky130_fd_pr__nfet_01v8_PW6BNL_0 GND dus GND Clkb_int dus GND sky130_fd_pr__nfet_01v8_PW6BNL
Xsky130_fd_pr__pfet_01v8_A4DS5R_0 VDD Clkb_buf VDD Clkb_buf VDD VDD Clkb_buf Clkb_buf
+ VDD dus GND sky130_fd_pr__pfet_01v8_A4DS5R
XMNbuf1 7 6 GND GND sky130_fd_pr__nfet_01v8_PW7BNL
XMNbuf2 GND GND 7 Clk_Out GND sky130_fd_pr__nfet_01v8_PW8BNL
XMPfb VDD 2 VDD VDD 2 VDD 6 GND sky130_fd_pr__pfet_01v8_A8DS5R
Xsky130_fd_pr__pfet_01v8_A2DS5R_0 VDD dus VDD dus Clkb_int VDD dus VDD GND sky130_fd_pr__pfet_01v8_A2DS5R
Xsky130_fd_pr__pfet_01v8_A1DS5R_0 Clkb_int VDD VDD VDD Clk_In GND sky130_fd_pr__pfet_01v8_A1DS5R
XMNfb GND 2 GND 6 2 GND sky130_fd_pr__nfet_01v8_PW6BNL
XMPinv1 VDD 3 VDD VDD 3 VDD 2 GND sky130_fd_pr__pfet_01v8_A8DS5R
XMPinv2 VDD 5 VDD VDD 5 VDD 4 GND sky130_fd_pr__pfet_01v8_A8DS5R
XMPClkin VDD Clk_In_buf VDD VDD Clk_In_buf VDD Clkb_buf GND sky130_fd_pr__pfet_01v8_A8DS5R
Xsky130_fd_pr__pfet_01v8_B2DS5R_0 3 4 3 4 3 Clkb_buf 3 4 4 VDD GND sky130_fd_pr__pfet_01v8_B2DS5R
Xsky130_fd_pr__pfet_01v8_B2DS5R_1 5 6 5 6 5 Clk_In_buf 5 6 6 VDD GND sky130_fd_pr__pfet_01v8_B2DS5R
Xsky130_fd_pr__nfet_01v8_PW8BNL_0 GND GND Clk_In Clkb_int GND sky130_fd_pr__nfet_01v8_PW8BNL
XMNTgate1 3 3 Clk_In_buf 4 4 3 4 3 4 3 GND sky130_fd_pr__nfet_01v8_PW9BNL
XMPbuf1 VDD 7 VDD 6 GND sky130_fd_pr__pfet_01v8_A9DS5R
XMNTgate2 5 5 Clkb_buf 6 6 5 6 5 6 5 GND sky130_fd_pr__nfet_01v8_PW9BNL
XMPbuf2 Clk_Out VDD VDD VDD 7 GND sky130_fd_pr__pfet_01v8_A1DS5R
Xsky130_fd_pr__nfet_01v8_PW4BNL_0 GND GND Clkb_buf GND dus Clkb_buf Clkb_buf GND sky130_fd_pr__nfet_01v8_PW4BNL
C0 5 6 0.76fF
C1 5 VDD 0.85fF
C2 5 4 0.27fF
C3 2 Clkb_buf 2.51fF
C4 5 Clk_In_buf 0.76fF
C5 3 2 0.65fF
C6 dus Clkb_int 0.54fF
C7 6 2 1.12fF
C8 2 VDD 0.17fF
C9 4 2 0.61fF
C10 2 7 0.14fF
C11 3 Clkb_buf 1.20fF
C12 2 Clk_In_buf 2.36fF
C13 6 Clkb_buf 0.06fF
C14 VDD Clkb_buf 4.34fF
C15 4 Clkb_buf -0.09fF
C16 VDD Clk_In 0.02fF
C17 3 VDD 0.95fF
C18 4 3 0.70fF
C19 Clk_In_buf Clkb_buf 3.06fF
C20 6 VDD 0.24fF
C21 4 VDD 0.27fF
C22 6 Clk_Out 0.02fF
C23 VDD Clk_Out 0.17fF
C24 5 2 0.47fF
C25 3 Clk_In_buf 1.27fF
C26 6 7 0.39fF
C27 7 VDD 0.47fF
C28 dus Clkb_buf 0.47fF
C29 7 Clk_Out 0.29fF
C30 6 Clk_In_buf 0.22fF
C31 Clk_In_buf VDD 3.93fF
C32 4 Clk_In_buf 0.05fF
C33 Clk_In Clkb_int 0.37fF
C34 dus Clk_In 0.02fF
C35 5 Clkb_buf 0.82fF
C36 VDD Clkb_int 0.34fF
C37 dus VDD 0.44fF
C38 5 3 0.03fF
C39 6 GND 2.63fF
C40 4 GND 1.43fF
C41 Clk_In_buf GND 3.63fF
C42 Clkb_buf GND 5.30fF
C43 Clk_Out GND 0.12fF
C44 7 GND 0.61fF
C45 Clkb_int GND 0.81fF
C46 Clk_In GND 0.54fF
C47 5 GND 0.73fF
C48 dus GND 1.61fF
C49 VDD GND 6.82fF
C50 3 GND 0.74fF
C51 2 GND 2.37fF
.ends

.subckt sky130_fd_pr__pfet_01v8_NC2CGG a_15_n240# w_n109_n340# a_n73_n240# a_n33_n337#
+ VSUBS
X0 a_15_n240# a_n33_n337# a_n73_n240# w_n109_n340# sky130_fd_pr__pfet_01v8 ad=6.96e+11p pd=5.38e+06u as=6.96e+11p ps=5.38e+06u w=2.4e+06u l=150000u
C0 a_n73_n240# a_15_n240# 0.20fF
C1 w_n109_n340# a_n33_n337# 0.11fF
C2 w_n109_n340# a_15_n240# 0.17fF
C3 w_n109_n340# a_n73_n240# 0.19fF
C4 a_15_n240# VSUBS -0.16fF
C5 a_n73_n240# VSUBS -0.18fF
C6 a_n33_n337# VSUBS 0.02fF
C7 w_n109_n340# VSUBS 0.44fF
.ends

.subckt sky130_fd_pr__pfet_01v8_UUCHZP a_n173_n220# a_n129_n366# a_n33_310# a_63_n366#
+ a_18_n220# a_114_n220# w_n209_n320# a_n78_n220# VSUBS
X0 a_114_n220# a_63_n366# a_18_n220# w_n209_n320# sky130_fd_pr__pfet_01v8 ad=6.49e+11p pd=4.99e+06u as=6.6e+11p ps=5e+06u w=2.2e+06u l=180000u
X1 a_n78_n220# a_n129_n366# a_n173_n220# w_n209_n320# sky130_fd_pr__pfet_01v8 ad=6.6e+11p pd=5e+06u as=6.49e+11p ps=4.99e+06u w=2.2e+06u l=180000u
X2 a_18_n220# a_n33_310# a_n78_n220# w_n209_n320# sky130_fd_pr__pfet_01v8 ad=0p pd=0u as=0p ps=0u w=2.2e+06u l=180000u
C0 w_n209_n320# a_18_n220# 0.28fF
C1 a_n33_310# a_n129_n366# 0.02fF
C2 w_n209_n320# a_n78_n220# 0.20fF
C3 w_n209_n320# a_114_n220# 0.20fF
C4 a_18_n220# a_n173_n220# 0.14fF
C5 a_n129_n366# a_63_n366# 0.04fF
C6 a_n173_n220# a_n78_n220# 0.24fF
C7 w_n209_n320# a_n33_310# 0.09fF
C8 a_n173_n220# a_114_n220# 0.06fF
C9 w_n209_n320# a_63_n366# 0.10fF
C10 a_18_n220# a_n78_n220# 0.24fF
C11 a_18_n220# a_114_n220# 0.24fF
C12 a_114_n220# a_n78_n220# 0.09fF
C13 a_18_n220# a_n33_310# 0.00fF
C14 a_n33_310# a_n78_n220# 0.00fF
C15 a_18_n220# a_63_n366# 0.00fF
C16 w_n209_n320# a_n129_n366# 0.10fF
C17 a_114_n220# a_63_n366# 0.00fF
C18 a_n129_n366# a_n173_n220# 0.00fF
C19 a_n33_310# a_63_n366# 0.02fF
C20 w_n209_n320# a_n173_n220# 0.28fF
C21 a_n129_n366# a_n78_n220# 0.00fF
C22 a_114_n220# VSUBS -0.18fF
C23 a_18_n220# VSUBS -0.27fF
C24 a_n78_n220# VSUBS -0.18fF
C25 a_n173_n220# VSUBS -0.27fF
C26 a_63_n366# VSUBS 0.06fF
C27 a_n129_n366# VSUBS 0.06fF
C28 a_n33_310# VSUBS 0.09fF
C29 w_n209_n320# VSUBS 0.78fF
.ends

.subckt sky130_fd_pr__pfet_01v8_XZZ25Z a_18_n136# a_n33_95# w_n112_n198# a_n76_n136#
+ VSUBS
X0 a_18_n136# a_n33_95# a_n76_n136# w_n112_n198# sky130_fd_pr__pfet_01v8 ad=2.9e+11p pd=2.58e+06u as=2.9e+11p ps=2.58e+06u w=1e+06u l=180000u
C0 a_n76_n136# a_18_n136# 0.20fF
C1 a_n33_95# a_n76_n136# 0.00fF
C2 w_n112_n198# a_n76_n136# 0.16fF
C3 a_n33_95# a_18_n136# 0.00fF
C4 w_n112_n198# a_18_n136# 0.16fF
C5 a_n33_95# w_n112_n198# 0.19fF
C6 a_18_n136# VSUBS -0.15fF
C7 a_n76_n136# VSUBS -0.15fF
C8 a_n33_95# VSUBS -0.07fF
C9 w_n112_n198# VSUBS 0.24fF
.ends

.subckt sky130_fd_pr__nfet_01v8_44BYND a_n73_n120# a_15_n120# a_n33_142# VSUBS
X0 a_15_n120# a_n33_142# a_n73_n120# VSUBS sky130_fd_pr__nfet_01v8 ad=3.48e+11p pd=2.98e+06u as=3.48e+11p ps=2.98e+06u w=1.2e+06u l=150000u
C0 a_n73_n120# a_15_n120# 0.15fF
C1 a_n33_142# a_15_n120# 0.00fF
C2 a_n73_n120# a_n33_142# 0.01fF
C3 a_15_n120# VSUBS 0.01fF
C4 a_n73_n120# VSUBS 0.01fF
C5 a_n33_142# VSUBS 0.13fF
.ends

.subckt sky130_fd_pr__nfet_01v8_TUVSF7 a_n33_n217# a_n76_n129# a_18_n129# VSUBS
X0 a_18_n129# a_n33_n217# a_n76_n129# VSUBS sky130_fd_pr__nfet_01v8 ad=3.741e+11p pd=3.16e+06u as=3.741e+11p ps=3.16e+06u w=1.29e+06u l=180000u
C0 a_n76_n129# a_18_n129# 0.15fF
C1 a_n33_n217# a_18_n129# 0.00fF
C2 a_n76_n129# a_n33_n217# 0.00fF
C3 a_18_n129# VSUBS 0.02fF
C4 a_n76_n129# VSUBS 0.00fF
C5 a_n33_n217# VSUBS 0.19fF
.ends

.subckt sky130_fd_pr__nfet_01v8_B87NCT a_n76_n69# a_18_n69# a_n33_n157# VSUBS
X0 a_18_n69# a_n33_n157# a_n76_n69# VSUBS sky130_fd_pr__nfet_01v8 ad=2.9e+11p pd=2.58e+06u as=2.9e+11p ps=2.58e+06u w=1e+06u l=180000u
C0 a_n76_n69# a_18_n69# 0.17fF
C1 a_n33_n157# a_18_n69# 0.01fF
C2 a_n76_n69# a_n33_n157# 0.00fF
C3 a_18_n69# VSUBS 0.00fF
C4 a_n76_n69# VSUBS 0.00fF
C5 a_n33_n157# VSUBS 0.12fF
.ends

.subckt sky130_fd_pr__nfet_01v8_NNRSEG a_18_n29# a_n33_n117# a_n76_n29# VSUBS
X0 a_18_n29# a_n33_n117# a_n76_n29# VSUBS sky130_fd_pr__nfet_01v8 ad=1.74e+11p pd=1.78e+06u as=1.74e+11p ps=1.78e+06u w=600000u l=180000u
C0 a_n76_n29# a_18_n29# 0.12fF
C1 a_n33_n117# a_18_n29# 0.01fF
C2 a_n76_n29# a_n33_n117# 0.01fF
C3 a_18_n29# VSUBS 0.00fF
C4 a_n76_n29# VSUBS 0.00fF
C5 a_n33_n117# VSUBS 0.12fF
.ends

.subckt sky130_fd_pr__nfet_01v8_26QSQN a_n76_n209# a_18_n209# a_n33_n297# VSUBS
X0 a_18_n209# a_n33_n297# a_n76_n209# VSUBS sky130_fd_pr__nfet_01v8 ad=6.96e+11p pd=5.38e+06u as=6.96e+11p ps=5.38e+06u w=2.4e+06u l=180000u
C0 a_n76_n209# a_18_n209# 0.35fF
C1 a_n33_n297# a_18_n209# 0.00fF
C2 a_n76_n209# a_n33_n297# 0.00fF
C3 a_18_n209# VSUBS 0.00fF
C4 a_n76_n209# VSUBS 0.00fF
C5 a_n33_n297# VSUBS 0.12fF
.ends

.subckt sky130_fd_pr__pfet_01v8_ACAZ2B w_n112_n170# a_n76_n108# a_18_n108# a_n33_67#
+ VSUBS
X0 a_18_n108# a_n33_67# a_n76_n108# w_n112_n170# sky130_fd_pr__pfet_01v8 ad=2.088e+11p pd=2.02e+06u as=2.088e+11p ps=2.02e+06u w=720000u l=180000u
C0 a_n76_n108# a_18_n108# 0.22fF
C1 a_n33_67# a_n76_n108# 0.01fF
C2 w_n112_n170# a_n76_n108# 0.15fF
C3 a_n33_67# a_18_n108# 0.01fF
C4 w_n112_n170# a_18_n108# 0.15fF
C5 a_n33_67# w_n112_n170# 0.19fF
C6 a_18_n108# VSUBS -0.13fF
C7 a_n76_n108# VSUBS -0.13fF
C8 a_n33_67# VSUBS -0.07fF
C9 w_n112_n170# VSUBS 0.21fF
.ends

.subckt sky130_fd_pr__pfet_01v8_hvt_N83GLL a_n73_n100# a_15_n100# w_n109_n136# a_n15_n132#
+ VSUBS
X0 a_15_n100# a_n15_n132# a_n73_n100# w_n109_n136# sky130_fd_pr__pfet_01v8_hvt ad=2.9e+11p pd=2.58e+06u as=2.9e+11p ps=2.58e+06u w=1e+06u l=150000u
C0 a_n73_n100# a_15_n100# 0.13fF
C1 w_n109_n136# a_n73_n100# 0.10fF
C2 w_n109_n136# a_15_n100# 0.10fF
C3 a_n15_n132# w_n109_n136# 0.05fF
C4 a_15_n100# VSUBS -0.08fF
C5 a_n73_n100# VSUBS -0.08fF
C6 a_n15_n132# VSUBS 0.00fF
C7 w_n109_n136# VSUBS 0.19fF
.ends

.subckt sky130_fd_pr__nfet_01v8_M34CP3 a_15_n96# a_n73_56# a_n73_n96# VSUBS
X0 a_15_n96# a_n73_56# a_n73_n96# VSUBS sky130_fd_pr__nfet_01v8 ad=1.885e+11p pd=1.88e+06u as=1.885e+11p ps=1.88e+06u w=650000u l=150000u
C0 a_n73_n96# a_15_n96# 0.08fF
C1 a_n73_n96# a_n73_56# 0.03fF
C2 a_15_n96# VSUBS 0.02fF
C3 a_n73_n96# VSUBS 0.02fF
C4 a_n73_56# VSUBS 0.14fF
.ends

.subckt sky130_fd_pr__nfet_01v8_HGTGXE_v2 a_18_n73# a_n18_n99# a_n76_n73# VSUBS
X0 a_18_n73# a_n18_n99# a_n76_n73# VSUBS sky130_fd_pr__nfet_01v8 ad=1.218e+11p pd=1.42e+06u as=1.218e+11p ps=1.42e+06u w=420000u l=180000u
C0 a_n76_n73# a_18_n73# 0.05fF
C1 a_n18_n99# a_18_n73# 0.03fF
C2 a_18_n73# VSUBS 0.02fF
C3 a_n76_n73# VSUBS 0.02fF
C4 a_n18_n99# VSUBS 0.13fF
.ends

.subckt vco_switch_n_v2 in sel out vss vdd selb
XXM25 vdd in out selb vss sky130_fd_pr__pfet_01v8_ACAZ2B
Xsky130_fd_pr__pfet_01v8_hvt_N83GLL_0 vdd selb vdd sel vss sky130_fd_pr__pfet_01v8_hvt_N83GLL
Xsky130_fd_pr__nfet_01v8_M34CP3_0 selb sel vss vss sky130_fd_pr__nfet_01v8_M34CP3
Xsky130_fd_pr__nfet_01v8_HGTGXE_v2_0 in sel out vss sky130_fd_pr__nfet_01v8_HGTGXE_v2
Xsky130_fd_pr__nfet_01v8_HGTGXE_v2_1 vss selb out vss sky130_fd_pr__nfet_01v8_HGTGXE_v2
C0 vdd out 0.11fF
C1 in selb 0.25fF
C2 in sel 0.55fF
C3 sel selb 0.39fF
C4 in out 0.19fF
C5 selb out 0.06fF
C6 sel out 0.06fF
C7 vdd in 0.30fF
C8 vdd selb 0.14fF
C9 vdd sel 0.09fF
C10 sel vss 0.78fF
C11 selb vss 0.81fF
C12 vdd vss 0.57fF
C13 out vss 0.16fF
C14 in vss 0.08fF
.ends

.subckt sky130_fd_pr__pfet_01v8_TPJM7Z a_18_n276# w_n112_n338# a_n33_235# a_n76_n276#
+ VSUBS
X0 a_18_n276# a_n33_235# a_n76_n276# w_n112_n338# sky130_fd_pr__pfet_01v8 ad=6.96e+11p pd=5.38e+06u as=6.96e+11p ps=5.38e+06u w=2.4e+06u l=180000u
C0 a_18_n276# a_n76_n276# 0.46fF
C1 a_18_n276# w_n112_n338# 0.32fF
C2 a_18_n276# a_n33_235# 0.00fF
C3 a_n76_n276# w_n112_n338# 0.32fF
C4 a_n76_n276# a_n33_235# 0.00fF
C5 w_n112_n338# a_n33_235# 0.19fF
C6 a_18_n276# VSUBS -0.31fF
C7 a_n76_n276# VSUBS -0.31fF
C8 a_n33_235# VSUBS -0.07fF
C9 w_n112_n338# VSUBS 0.43fF
.ends

.subckt sky130_fd_pr__pfet_01v8_MP1P4U a_n73_n144# a_n33_n241# a_15_n144# w_n109_n244#
+ VSUBS
X0 a_15_n144# a_n33_n241# a_n73_n144# w_n109_n244# sky130_fd_pr__pfet_01v8 ad=4.06e+11p pd=3.38e+06u as=4.06e+11p ps=3.38e+06u w=1.4e+06u l=150000u